--------- BEAMDYN with OpenFAST INPUT FILE -------------------------------------------
Generated with AeroElasticSE FAST driver
---------------------- SIMULATION CONTROL --------------------------------------
False                   Echo        - Echo input data to "<RootName>.ech" (flag)
True                   QuasiStaticInit - Use quasistatic pre-conditioning with centripetal accelerations in initialization (flag) [dynamic solve only]
0                      rhoinf      - Numerical damping parameter for generalized-alpha integrator
2                      quadrature  - Quadrature method: 1=Gaussian; 2=Trapezoidal (switch)
"DEFAULT"              refine      - Refinement factor for trapezoidal quadrature (-). DEFAULT = 1 [used only when quadrature=2]
"DEFAULT"              n_fact      - Factorization frequency (-). DEFAULT = 5
"DEFAULT"                DTBeam      - Time step size (s).
"DEFAULT"                load_retries - Number of factored load retries before quitting the aimulation
"DEFAULT"                NRMax       - Max number of iterations in Newton-Ralphson algorithm (-). DEFAULT = 10
"DEFAULT"                stop_tol    - Tolerance for stopping criterion (-)
"DEFAULT"              tngt_stf_fd - Flag to use finite differenced tangent stiffness matrix (-)
"DEFAULT"              tngt_stf_comp - Flag to compare analytical finite differenced tangent stiffness matrix  (-)
"DEFAULT"                tngt_stf_pert - perturbation size for finite differencing (-)
"DEFAULT"                tngt_stf_difftol - Maximum allowable relative difference between analytical and fd tangent stiffness (-)
True                   RotStates   - Orient states in the rotating frame during linearization? (flag) [used only when linearizing]
---------------------- GEOMETRY PARAMETER --------------------------------------
1                      member_total - Total number of members (-)
50                     kp_total    - Total number of key points (-) [must be at least 3]
1 50                               - Member number; Number of key points in this member
        kp_xr                 kp_yr                 kp_zr             initial_twist
         (m)                   (m)                   (m)                  (deg)
-0.00000000000000e+00  0.00000000000000e+00  0.00000000000000e+00  2.00020000000000e+01
 0.00000000000000e+00  0.00000000000000e+00  2.04074000000000e+00  1.85638000000000e+01
 0.00000000000000e+00  0.00000000000000e+00  4.08148000000000e+00  1.71588000000000e+01
 0.00000000000000e+00  0.00000000000000e+00  6.12222000000000e+00  1.58273000000000e+01
 0.00000000000000e+00  0.00000000000000e+00  8.16296000000000e+00  1.45739000000000e+01
 0.00000000000000e+00  0.00000000000000e+00  1.02037000000000e+01  1.33683000000000e+01
 0.00000000000000e+00  0.00000000000000e+00  1.22444000000000e+01  1.22979000000000e+01
 0.00000000000000e+00  0.00000000000000e+00  1.42852000000000e+01  1.12616000000000e+01
 0.00000000000000e+00  0.00000000000000e+00  1.63259000000000e+01  1.03008000000000e+01
 0.00000000000000e+00  0.00000000000000e+00  1.83667000000000e+01  9.36547000000000e+00
 0.00000000000000e+00  0.00000000000000e+00  2.04074000000000e+01  8.45071000000000e+00
 0.00000000000000e+00  0.00000000000000e+00  2.24481000000000e+01  7.64538000000000e+00
 0.00000000000000e+00  0.00000000000000e+00  2.44889000000000e+01  6.89375000000000e+00
 0.00000000000000e+00  0.00000000000000e+00  2.65296000000000e+01  6.31586000000000e+00
 0.00000000000000e+00  0.00000000000000e+00  2.85704000000000e+01  5.85309000000000e+00
 0.00000000000000e+00  0.00000000000000e+00  3.06111000000000e+01  5.51368000000000e+00
 0.00000000000000e+00  0.00000000000000e+00  3.26518000000000e+01  5.25658000000000e+00
 0.00000000000000e+00  0.00000000000000e+00  3.46926000000000e+01  5.02534000000000e+00
 0.00000000000000e+00  0.00000000000000e+00  3.67333000000000e+01  4.83206000000000e+00
 0.00000000000000e+00  0.00000000000000e+00  3.87741000000000e+01  4.63371000000000e+00
 0.00000000000000e+00  0.00000000000000e+00  4.08148000000000e+01  4.42815000000000e+00
 0.00000000000000e+00  0.00000000000000e+00  4.28555000000000e+01  4.18098000000000e+00
 0.00000000000000e+00  0.00000000000000e+00  4.48963000000000e+01  3.91664000000000e+00
 0.00000000000000e+00  0.00000000000000e+00  4.69370000000000e+01  3.61518000000000e+00
 0.00000000000000e+00  0.00000000000000e+00  4.89778000000000e+01  3.30831000000000e+00
 0.00000000000000e+00  0.00000000000000e+00  5.10185000000000e+01  2.99120000000000e+00
 0.00000000000000e+00  0.00000000000000e+00  5.30592000000000e+01  2.67677000000000e+00
 0.00000000000000e+00  0.00000000000000e+00  5.51000000000000e+01  2.36376000000000e+00
 0.00000000000000e+00  0.00000000000000e+00  5.71407000000000e+01  2.07416000000000e+00
 0.00000000000000e+00  0.00000000000000e+00  5.91815000000000e+01  1.79388000000000e+00
 0.00000000000000e+00  0.00000000000000e+00  6.12222000000000e+01  1.53586000000000e+00
 0.00000000000000e+00  0.00000000000000e+00  6.32629000000000e+01  1.28119000000000e+00
 0.00000000000000e+00  0.00000000000000e+00  6.53037000000000e+01  1.02889000000000e+00
 0.00000000000000e+00  0.00000000000000e+00  6.73444000000000e+01  7.56339000000000e-01
 0.00000000000000e+00  0.00000000000000e+00  6.93852000000000e+01  4.69367000000000e-01
 0.00000000000000e+00  0.00000000000000e+00  7.14259000000000e+01  1.36062000000000e-01
 0.00000000000000e+00  0.00000000000000e+00  7.34666000000000e+01 -2.82444000000000e-01
 0.00000000000000e+00  0.00000000000000e+00  7.55074000000000e+01 -7.80470000000000e-01
 0.00000000000000e+00  0.00000000000000e+00  7.75481000000000e+01 -1.33462000000000e+00
 0.00000000000000e+00  0.00000000000000e+00  7.95889000000000e+01 -1.88776000000000e+00
 0.00000000000000e+00  0.00000000000000e+00  8.16296000000000e+01 -2.36147000000000e+00
 0.00000000000000e+00  0.00000000000000e+00  8.36703000000000e+01 -2.72390000000000e+00
 0.00000000000000e+00  0.00000000000000e+00  8.57111000000000e+01 -2.94940000000000e+00
 0.00000000000000e+00  0.00000000000000e+00  8.77518000000000e+01 -3.07114000000000e+00
 0.00000000000000e+00  0.00000000000000e+00  8.97926000000000e+01 -3.15849000000000e+00
 0.00000000000000e+00  0.00000000000000e+00  9.18333000000000e+01 -3.22724000000000e+00
 0.00000000000000e+00  0.00000000000000e+00  9.38740000000000e+01 -3.28677000000000e+00
 0.00000000000000e+00  0.00000000000000e+00  9.59148000000000e+01 -3.33120000000000e+00
 0.00000000000000e+00  0.00000000000000e+00  9.79555000000000e+01 -3.35587000000000e+00
-0.00000000000000e+00  0.00000000000000e+00  9.99963000000000e+01 -3.37164000000000e+00
---------------------- MESH PARAMETER ------------------------------------------
5                      order_elem  - Order of interpolation (basis) function (-)
---------------------- MATERIAL PARAMETER --------------------------------------
"OpenFAST_BAR_02_BeamDyn_Blade.dat" BldFile     - Name of file containing properties for blade (quoted string)
---------------------- PITCH ACTUATOR PARAMETERS -------------------------------
False                  UsePitchAct - Whether a pitch actuator should be used (flag)
200.0                  PitchJ      - Pitch actuator inertia (kg-m^2) [used only when UsePitchAct is true]
20000000.0             PitchK      - Pitch actuator stiffness (kg-m^2/s^2) [used only when UsePitchAct is true]
500000.0               PitchC      - Pitch actuator damping (kg-m^2/s) [used only when UsePitchAct is true]
---------------------- OUTPUTS -------------------------------------------------
True                   SumPrint    - Print summary data to "<RootName>.sum" (flag)
"ES10.3E2"             OutFmt      - Format used for text tabular output, excluding the time channel.
1                      NNodeOuts   - Number of nodes to output to file [0 - 9] (-)
1, 2, 3, 4, 5, 6    OutNd          - Nodes whose values will be output  (-) OutNd       - Nodes whose values will be output  (-)
          OutList            - The next line(s) contains a list of output parameters. See OutListParameters.xlsx for a listing of available output channels, (-)
"RootFxr"
"RootFyr"
"RootFzr"
"RootMxr"
"RootMyr"
"RootMzr"
"TipTDxr"
"TipTDyr"
"TipTDzr"
END of input file (the word "END" must appear in the first 3 columns of this last OutList line)---------------------------------------------------------------------------------------
